-------------------------------------------------------
          Amber 20 PMEMD                              2020
          -------------------------------------------------------

  [-O]verwriting output

File Assignments:

 Here is the input file:

production NPT
 &cntrl
   imin=0,
   ntx=1, irest=0,
   t=0,
   ntxo=2, ntpr=5000, ntwr=10000000, ntwx=5000, ioutfm=1,
   nstlim=2500000, dt=0.002,
   ntt=2, temp0=310, ig=-1, tempi=310, vrand=50000,
   ntp=1, barostat=2, pres0=1.0, mcbarint=50000,
   ntc=2,
   ntf=2, ntb=2, cut=8.,
   plumed=0, plumedfile='plumed1.dat'

/
 &ewald
   ew_type=0, use_pme=1,
/

Note: ig = -1. Setting random seed to   833979 based on wallclock time in
      microseconds and disabling the synchronization of random numbers
      between tasks to improve performance.

--------------------------------------------------------------------------------
   1.  RESOURCE   USE:
--------------------------------------------------------------------------------

 getting new box info from bottom of inpcrd
 NATOM  =    1751 NTYPES =       9 NBONH =    1736 MBONA  =      14
 NTHETH =      36 MTHETA =      18 NPHIH =      64 MPHIA  =      45
 NHPARM =       0 NPARM  =       0 NNB   =    2444 NRES   =     577
 NBONA  =      14 NTHETA =      18 NPHIA =      45 NUMBND =      13
 NUMANG =      21 NPTRA  =      20 NATYP =      10 NPHB   =       0
 IFBOX  =       2 NMXRS  =      10 IFCAP =       0 NEXTRA =       0
 NCOPY  =       0

     BOX TYPE: TRUNCATED OCTAHEDRON

--------------------------------------------------------------------------------
   2.  CONTROL  DATA  FOR  THE  RUN
--------------------------------------------------------------------------------

default_name

General flags:
     imin    =       0, nmropt  =       0

Nature and format of input:
     ntx     =       1, irest   =       0, ntrx    =       1

Nature and format of output:
     ntxo    =       2, ntpr    =    5000, ntrx    =       1, ntwr    =10000000
     iwrap   =       0, ntwx    =    5000, ntwv    =       0, ntwe    =       0
     ioutfm  =       1, ntwprt  =       0, idecomp =       0, rbornstat=      0

Potential function:
     ntf     =       2, ntb     =       2, igb     =       0, nsnb    =      25
     ipol    =       0, gbsa    =       0, iesp    =       0
     dielc   =   1.00000, cut     =   8.00000, intdiel =   1.00000

Frozen or restrained atoms:
     ibelly  =       0, ntr     =       0

Molecular dynamics:
     nstlim  =   2500000, nscm    =      1000, nrespa  =         1
     t       =   0.00000, dt      =   0.00200, vlimit  =  -1.00000

Anderson (strong collision) temperature regulation:
     ig      =  833979, vrand   =   50000
     temp0   = 310.00000, tempi   = 310.00000

Pressure regulation:
     ntp     =       1
     pres0   =   1.00000, comp    =  44.60000, taup    =   1.00000
     Monte-Carlo Barostat:
     mcbarint  =   50000

SHAKE:
     ntc     =       2, jfastw  =       0
     tol     =   0.00001

Ewald parameters:
     verbose =       0, ew_type =       0, nbflag  =       1, use_pme =       1
     vdwmeth =       1, eedmeth =       1, netfrc  =       1
     Box X =   30.536   Box Y =   30.536   Box Z =   30.536
     Alpha =  109.471   Beta  =  109.471   Gamma =  109.471
     NFFT1 =   32       NFFT2 =   32       NFFT3 =   32
     Cutoff=    8.000   Tol   =0.100E-04
     Ewald Coefficient =  0.34864
     Interpolation order =    4

--------------------------------------------------------------------------------
   3.  ATOMIC COORDINATES AND VELOCITIES
--------------------------------------------------------------------------------

default_name
 begin time read from input coords =     0.000 ps

 Number of triangulated 3-point waters found:      573

     Sum of charges from parm topology file =  -0.00000000
     Forcing neutrality...

--------------------------------------------------------------------------------
   4.  RESULTS
 NSTEP =        0   TIME(PS) =       0.000  TEMP(K) =   445.73  PRESS =     0.0
 Etot   =     -2818.2748  EKtot   =      1556.2620  EPtot      =     -4374.5368
 BOND   =         0.0205  ANGLE   =         0.6685  DIHED      =        16.8986
 1-4 NB =         8.7181  1-4 EEL =       121.7250  VDWAALS    =       669.9036
 EELEC  =     -5192.4711  EHBOND  =         0.0000  RESTRAINT  =         0.0000
 EKCMT  =         0.0000  VIRIAL  =         0.0000  VOLUME     =     21917.8753
                                                    Density    =         0.7984
 ------------------------------------------------------------------------------

      A V E R A G E S   O V E R     500 S T E P S

 NSTEP =  2500000   TIME(PS) =    5000.000  TEMP(K) =   315.89  PRESS =     0.0
 Etot   =     -4105.6770  EKtot   =      1102.9293  EPtot      =     -5208.6062
 BOND   =         5.1702  ANGLE   =        14.1666  DIHED      =        20.3450
 1-4 NB =         5.4788  1-4 EEL =       118.0266  VDWAALS    =       716.8093
 EELEC  =     -6088.6027  EHBOND  =         0.0000  RESTRAINT  =         0.0000
 EKCMT  =         0.0000  VIRIAL  =         0.0000  VOLUME     =     20315.7577
                                                    Density    =         0.8633
 ------------------------------------------------------------------------------

      R M S  F L U C T U A T I O N S

 NSTEP =  2500000   TIME(PS) =    5000.000  TEMP(K) =    13.50  PRESS =     0.0
 Etot   =       159.7234  EKtot   =        47.1354  EPtot      =       123.4745
 BOND   =         1.9355  ANGLE   =         2.9768  DIHED      =         1.7595
 1-4 NB =         0.9976  1-4 EEL =         3.1643  VDWAALS    =        48.0318
 EELEC  =       157.1431  EHBOND  =         0.0000  RESTRAINT  =         0.0000
 EKCMT  =         0.0000  VIRIAL  =         0.0000  VOLUME     =       954.4116
                                                    Density    =         0.0405
 ------------------------------------------------------------------------------
